Circuit: * AD633 Analog Multiplier Macro Model

Fatal Error: No analysis request found.
