Circuit: * C:\users\gosmann\Documents\EBE\EBE_LVDT_project\simulations\sim1.asc

Early termination of direct N-R iteration.
Direct Newton iteration failed to find .op point.  (Use ".option noopiter" to skip.)
Starting Gmin stepping
Increasing initial diagonal Gmin to 100
Gmin = 100
vernier = 0.5
vernier = 0.25
Gmin = 34.2672
vernier = 0.125
vernier = 0.0625
vernier = 0.03125
vernier = 0.015625
Gmin = 35.4324
vernier = 0.0078125
vernier = 0.00390625
vernier = 0.00195313
vernier = 0.000976563
Gmin = 35.3547
vernier = 0.000488281
Gmin = 0
Gmin stepping failed

Starting source stepping with srcstepmethod=0
Source Step = 3.0303%
Source Step = 12.1212%
Source Step = 19.697%
Source Step = 27.2727%
Source Step = 34.8485%
Source Step = 42.4242%
vernier = 0.375
Source Step = 52.6515%
Source Step = 64.0152%
Source Step = 75.3788%
Source Step = 86.7424%
Source Step = 98.1061%
Source stepping succeeded in finding the operating point.

.step x=-0.0025
.step x=-0.002
.step x=-0.0015
.step x=-0.001
.step x=-0.0005
.step x=2.11758e-022
.step x=0.0005
.step x=0.001
.step x=0.0015
.step x=0.002
.step x=0.0025

Date: Mon Jun 17 23:00:13 2024
Total elapsed time: 17.657 seconds.

tnom = 27
temp = 27
method = Gear
totiter = 4436
traniter = 2226
tranpoints = 1114
accept = 1080
rejected = 34
matrix size = 140
fillins = 1084
Thread vector: 50.3/21.3[3] 10.8/7.4[3] 11.0/8.6[3] 5.7/5.9[1]  2592/500
Matrix Compiler1: 230.03 KB object code size  66.4/41.3/[33.1]
Matrix Compiler2: 35.66 KB object code size  11.5/9.9/[6.1]

