Circuit: * C:\users\gosmann\Documents\EBE\EBE_LVDT_project\simulations\sim1.asc

Reducing mutual coupling coefficient from 1.08758 to 1.
Early termination of direct N-R iteration.
Direct Newton iteration failed to find .op point.  (Use ".option noopiter" to skip.)
Starting Gmin stepping
Increasing initial diagonal Gmin to 100
Gmin = 100
vernier = 0.5
vernier = 0.25
Gmin = 34.2672
vernier = 0.125
vernier = 0.0625
vernier = 0.03125
vernier = 0.015625
Gmin = 35.4324
vernier = 0.0078125
vernier = 0.00390625
vernier = 0.00195313
vernier = 0.000976563
Gmin = 35.3547
vernier = 0.000488281
Gmin = 0
Gmin stepping failed

Starting source stepping with srcstepmethod=0
Source Step = 3.0303%
Source Step = 12.1212%
Source Step = 19.697%
Source Step = 27.2727%
Source Step = 34.8485%
Source Step = 42.4242%
vernier = 0.375
Source Step = 52.6515%
Source Step = 64.0152%
Source Step = 75.3788%
Source Step = 86.7424%
Source Step = 98.1061%
Source stepping succeeded in finding the operating point.

.step x=-0.0025
Heightened Def Con from 0.00138195 to 0.00138195
Heightened Def Con from 0.00216665 ++++++++++++++++++++to 0.00216665
Heightened Def Con from 0.00216665 +++++++++++++++++to 0.00216665
Heightened Def Con from 0.00216665 +++++++++++++++to 0.00216665
Heightened Def Con from 0.00216665 +++++++++++++to 0.00216665
Heightened Def Con from 0.00316665 to 0.00316665
Heightened Def Con from 0.00508193 to 0.00508193
Heightened Def Con from 0.00748193 ++++++++++++++++++++to 0.00748193
Heightened Def Con from 0.00748193 +++++++++++++++++to 0.00748193
Heightened Def Con from 0.00748193 +++++++++++++to 0.00748193
Heightened Def Con from 0.00998193 ++++++++++++++++++++to 0.00998193
Heightened Def Con from 0.00998193 ++++++++++++++++++to 0.00998193
Heightened Def Con from 0.00998193 ++++++++++++++++++to 0.00998194
Heightened Def Con from 0.00998213 to 0.00998213
.step x=-0.002
.step x=-0.0015
.step x=-0.001
.step x=-0.0005
.step x=2.11758e-022
.step x=0.0005
.step x=0.001
.step x=0.0015
.step x=0.002
.step x=0.0025

Date: Fri Jun 21 15:22:46 2024
Total elapsed time: 120.096 seconds.

tnom = 27
temp = 27
method = trap
totiter = 105043
traniter = 102789
tranpoints = 21599
accept = 15921
rejected = 5678
matrix size = 258
fillins = 1766
Thread vector: 54.2/23.8[6] 19.0/11.1[6] 16.6/9.8[6] 7.7/6.4[3]  2592/500
Matrix Compiler1: 288.49 KB object code size  95.6/57.4/[43.1]
Matrix Compiler2: 59.62 KB object code size  21.3/18.0/[7.3]

